Circuit: * E:\GitHub\Tremolo\SPICE\Draft4.asc

WARNING: Less than two connections to node N002.  This node is used by R1.
Direct Newton iteration for .op point succeeded.

Date: Sun Jul 07 11:42:42 2019
Total elapsed time: 0.080 seconds.

tnom = 27
temp = 27
method = modified trap
totiter = 2085
traniter = 2082
tranpoints = 1042
accept = 1042
rejected = 0
matrix size = 4
fillins = 0
solver = Normal
Matrix Compiler1: off  [0.0]/0.0/0.0
Matrix Compiler2: 230 bytes object code size  0.0/0.1/[0.0]

