Circuit: * E:\GitHub\Tremolo\SPICE\Draft3.asc

Direct Newton iteration failed to find .op point.  (Use ".option noopiter" to skip.)
Starting Gmin stepping
Gmin = 10
Gmin = 1.07374
Gmin = 0.115292
Gmin = 0.0123794
Gmin = 0.00132923
Gmin = 0.000142725
Gmin = 1.5325e-005
Gmin = 1.6455e-006
vernier = 0.5
Gmin = 4.20774e-007
vernier = 0.666667
vernier = 0.888888
Gmin = 8.12392e-008
vernier = 1
Gmin = 9.33136e-009
Gmin = 1.00195e-009
Gmin = 1.07583e-010
Gmin = 1.15517e-011
Gmin = 1.24035e-012
Gmin = 1.33182e-013
Gmin = 0
Gmin stepping succeeded in finding the operating point.


Date: Sun Jun 30 17:14:49 2019
Total elapsed time: 9.305 seconds.

tnom = 27
temp = 27
method = modified trap
totiter = 571119
traniter = 570567
tranpoints = 185175
accept = 131718
rejected = 53457
matrix size = 35
fillins = 31
solver = Normal
Thread vector: 7.5/4.6[3] 4.2/2.7[2] 1.1/2.6[1] 0.2/0.7[1]  2592/500
Matrix Compiler1: 2.25 KB object code size  1.2/0.5/[0.2]
Matrix Compiler2: off  [0.2]/0.4/0.3

