Circuit: * E:\GitHub\Tremolo\SPICE\Draft2.asc

WARNING: Less than two connections to node 5V.  This node is used by V3.
u4:vx1: Missing value, assumed 0V @ DC
u3:vx1: Missing value, assumed 0V @ DC
u2:vx1: Missing value, assumed 0V @ DC
u1:vx1: Missing value, assumed 0V @ DC
Direct Newton iteration for .op point succeeded.

Date: Sun Jun 30 15:21:57 2019
Total elapsed time: 0.099 seconds.

tnom = 27
temp = 27
method = trap
totiter = 25
traniter = 0
tranpoints = 0
accept = 0
rejected = 0
matrix size = 280
fillins = 275
solver = Normal
Matrix Compiler1:    1532 opcodes
Matrix Compiler2: 26.09 KB object code size
