Circuit: * E:\GitHub\Tremolo\SPICE\Draft1.asc

Limiting rise time of source v1 to 1e-006
Limiting fall time of source v1 to 1e-006
WARNING: Less than two connections to node 9V.  This node is used by V2.
Direct Newton iteration for .op point succeeded.

Date: Sun Jun 30 13:35:55 2019
Total elapsed time: 0.395 seconds.

tnom = 27
temp = 27
method = modified trap
totiter = 161137
traniter = 161113
tranpoints = 51939
accept = 37605
rejected = 14334
matrix size = 18
fillins = 0
solver = Normal
Matrix Compiler1: 986 bytes object code size  0.2/0.1/[0.1]
Matrix Compiler2: 1.31 KB object code size  0.2/0.2/[0.2]

