Circuit: * E:\GitHub\Tremolo\SPICE\PWM_Filter.asc

Limiting rise time of source v1 to 1e-005
Limiting fall time of source v1 to 1e-005
.OP point found by inspection.

Date: Sun Jun 30 12:40:01 2019
Total elapsed time: 0.214 seconds.

tnom = 27
temp = 27
method = modified trap
totiter = 25466
traniter = 25466
tranpoints = 12734
accept = 9823
rejected = 2911
matrix size = 4
fillins = 0
solver = Normal
Matrix Compiler1: 100 bytes object code size  0.0/0.0/[0.0]
Matrix Compiler2: 248 bytes object code size  0.0/0.1/[0.0]

